[TITLE]

[JUNCTIONS]
;ID              	Elev        	Demand      	Pattern
 0               	234.000000         	0           	                	;
 1               	234.000000         	0           	                	;
 2               	234.000000         	0           	                	;
 3               	233.900000         	0           	                	;
 4               	233.600000         	0           	                	;
 5               	233.600000         	0           	                	;
 6               	233.900000         	0           	                	;
 7               	233.900000         	0           	                	;
 8               	234.100000         	0           	                	;
 9               	234.900000         	0           	                	;
 10               	234.000000         	0           	                	;
 11              	233.900000         	0           	                	;
 12               	233.900000         	0           	                	;
 13               	233.900000         	0           	                	;
 14               	234.100000         	0           	                	;
 15               	233.600000         	0           	                	;
 16               	234.900000         	0           	                	;
 17               	235.600000         	0           	                	;
 	


[PIPES]
;ID              	Node1           	Node2           	Length      	Diameter    	Roughness   	MinorLoss   	Status
 0               	  0               	  1               	83.000000     	 0.1500           0.006         	   0           	 Open  	;
 1               	  1               	  2               	6.000000     	 0.1500           0.006         	   0           	 Open  	;
 2               	  2               	  3               	64.000000     	 0.1500           0.006         	   0           	 Open  	;
 3               	  3               	  4               	67.000000     	 0.1500           0.006         	   0           	 Open  	;
 4               	  4               	  5               	61.000000     	 0.1500           0.006         	   0           	 Open  	;
 5               	  2               	  6               	154.000000     	 0.1000           0.006         	   0           	 Open  	; 
 6               	  6               	  7               	32.000000     	 0.1000           0.006         	   0           	 Open  	;
 7               	  7               	  8               	28.000000     	 0.1000           0.006         	   0           	 Open  	;
 8               	  8               	  9               	74.000000     	 0.1000           0.006         	   0           	 Open  	;
 9               	  1               	  10               	6.000000     	 0.1500           0.006         	   0           	 Open  	;
 10               	  6               	  11               	6.000000     	 0.1000           0.006         	   0           	 Open  	;
 11               	  3               	  12               	6.000000     	 0.1500           0.006         	   0           	 Open  	;
 12               	  7               	  13              	6.000000     	 0.1000           0.006         	   0           	 Open  	;
 13               	  8               	  14               	6.000000     	 0.1000           0.006         	   0           	 Open  	;
 14               	  4               	  15               	6.000000     	 0.1500           0.006         	   0           	 Open  	;
 15               	  9               	  17               	32.000000     	 0.1000           0.006         	   0           	 Open  	;
 16               	  9               	  16               	6.000000     	 0.1000           0.006         	   0           	 Open  	;


[COORDINATES]
;Node            	X-Coord         	Y-Coord
 0              	 0.00              	100.00   
 1              	 100.00              	100.00   
 2              	200.00              	100.00   
 3              	0.0              	-100.00   
 4              	100.00              	-100.00   
 5              	200.00              	-100.00   

