[TITLE]

[JUNCTIONS]
;ID              	Elev        	Demand      	Pattern
 0               	0.000000         	0           	                	;
 1               	0.000000         	0           	                	;
 2               	0.000000         	0           	                	;
 3               	0.000000         	0           	                	;
 4               	0.000000         	0           	                	;
 5               	0.000000         	0           	                	;


[PIPES]
;ID              	Node1           	Node2           	Length      	Diameter    	Roughness   	MinorLoss   	Status
 0               	  0               	  1               	100.000000     	 0.3000           0.008         	   0           	 Open  	;
 1               	  1               	  2               	100.000000     	 0.3000           0.008         	   0           	 Open  	;
 2               	  3               	  4               	100.000000     	 0.3000           0.008         	   0           	 Open  	;
 3               	  4               	  5               	100.000000     	 0.3000           0.008         	   0           	 Open  	;
 4               	  1               	  4               	50.000000     	 0.3000           0.008         	   0           	 Open  	;
 

[COORDINATES]
;Node            	X-Coord         	Y-Coord
 0              	 0.00              	100.00   
 1              	 100.00              	100.00   
 2              	200.00              	100.00   
 3              	0.0              	-100.00   
 4              	100.00              	-100.00   
 5              	200.00              	-100.00   

