[TITLE]

[JUNCTIONS]
;ID              	Elev        	Demand      	Pattern
 0               	0.588000         	0           	                	;
 1               	0.168000         	0           	                	;
 2               	0.008380         	0           	                	;
 3               	0.006000         	0           	                	;
 4               	0.005000         	0           	                	;
 5               	0.007000         	0           	                	;
 6               	0.01180         	0           	                	;
 7               	1.385000         	0           	                	;

[PIPES]
;ID              	Node1           	Node2           	Length      	Diameter    	Roughness   	MinorLoss   	Status
 0               	  0               	  1               	5.02     	 0.192           0.009         	   0           	 Open  	;
 1               	  1               	  2               	1.90     	 0.192           0.009         	   0           	 Open  	;
 2               	  2               	  3               	0.05     	 0.192           0.009         	   0           	 Open  	;
 3               	  3               	  4               	0.05     	 0.192           0.009         	   0           	 Open  	;
 4               	  4               	  5               	0.04     	 0.192           0.009         	   0           	 Open  	;
 5               	  5               	  6               	0.04     	 0.192           0.009         	   0           	 Open  	;
 6               	  6               	  7               	5.13     	 0.192           0.009         	   0           	 Open  	;

[COORDINATES]
;Node            	X-Coord         	Y-Coord
 0              	 0.00              	 0.00   
 1              	29.24              	 0.00   
 2              	47.52              	 0.00   
 3              	53.00              	 0.00   
 4              	58.75              	 0.00   
 5              	63.97              	 0.00   
 6              	69.45              	 0.00   
 7              	100.00              	 0.00   
