[TITLE]

[JUNCTIONS]
;ID              	Elev        	Demand      	Pattern
 0                	0.00         	0           	                	;
 1               	0.00         	0           	                	;
 2               	0.00         	0           	                	;
 3               	0.00         	0           	                	;
 4               	0.00         	0           	                	;
 5               	0.00         	0           	                	;
 6               	0.00         	0           	                	;
 7               	0.00         	0           	                	; 
 8               	0.00         	0           	                	;
 

[PIPES]
;ID              	Node1           	Node2           	Length      	Diameter    	Roughness   	MinorLoss   	Status
 0               	  0               	  1               	208.00     	 0.600           0.021         	   0           	 Open  	;
 1               	  1               	  2               	230.00     	 0.600           0.017        	   0           	 Open  	;
 2               	  2               	  3               	54.00     	 0.600           0.017         	   0           	 Open  	;
 3               	  3               	  4               	8.00     	 0.600           0.017         	   0           	 Open  	;
 4               	  4               	  5               	35.00     	 0.600           0.017         	   0           	 Open  	;
 5               	  5               	  6               	123.00     	 0.600           0.017         	   0           	 Open  	;
 6               	  3               	  7               	285.00     	 0.250           0.017         	   0           	 Open  	;
 7               	  4               	  8               	100.00     	 0.300           0.017         	   0           	 Open  	;

 

 
 

[COORDINATES]
;Node            	X-Coord         	Y-Coord
 0              	 0.00              	 0.00   
 1              	32.14              	 0.00   
 2              	64.29              	 0.00   
 3              	73.21              	 0.00
 4              	75.00              	 0.00    
 5              	82.14              	 0.00   
 6              	100.00              	 0.00   
 7              	73.21              	100.00    
 8              	75.00              	40.00   
