[TITLE]

[JUNCTIONS]
;ID              	Elev        	Demand      	Pattern
 0               	0.000000         	0           	                	;
 1               	0.000000         	0           	                	;
 2               	0.000000         	0           	                	;
 3               	0.000000         	0           	                	;
 4               	0.000000         	0           	                	;
 5               	0.000000         	0           	                	;
 6               	0.000000         	0           	                	;
 7               	0.000000         	0           	                	;
 8               	0.000000         	0           	                	;
 9               	0.000000         	0           	                	;
 10               	0.000000         	0           	                	;
 11               	0.000000         	0           	                	;
 12               	0.000000         	0           	                	;
 13               	0.000000         	0           	                	;
 14               	0.000000         	0           	                	;
 15               	0.000000         	0           	                	;
 16               	0.000000         	0           	                	;
 17               	0.000000         	0           	                	;
 18               	0.000000         	0           	                	;
 19               	0.000000         	0           	                	;
 20               	0.000000         	0           	                	;
 21               	0.000000         	0           	                	;
 22               	0.000000         	0           	                	;
 23               	0.000000         	0           	                	;
 24               	0.000000         	0           	                	;
 25               	0.000000         	0           	                	;
 26               	0.000000         	0           	                	;
 27               	0.000000         	0           	                	;
 28               	0.000000         	0           	                	;
 29               	0.000000         	0           	                	;
 30               	0.000000         	0           	                	;
 31               	0.000000         	0           	                	;
 32               	0.000000         	0           	                	;
 33               	0.000000         	0           	                	;
 34               	0.000000         	0           	                	;
 35               	0.000000         	0           	                	;
 36               	0.000000         	0           	                	;
 37               	0.000000         	0           	                	;
 38               	0.000000         	0           	                	;
 39               	0.000000         	0           	                	;
 40               	0.000000         	0           	                	;
 41               	0.000000         	0           	                	;
 42               	0.000000         	0           	                	;
 43               	0.000000         	0           	                	;
 44               	0.000000         	0           	                	;
 45               	0.000000         	0           	                	;
 46               	0.000000         	0           	                	;
 47               	0.000000         	0           	                	;
 48               	0.000000         	0           	                	;
 49               	0.000000         	0           	                	;
 50               	0.000000         	0           	                	;
 51               	0.000000         	0           	                	;
 52               	0.000000         	0           	                	;
 53               	0.000000         	0           	                	;
 54               	0.000000         	0           	                	;
 55               	0.000000         	0           	                	;
 56               	0.000000         	0           	                	;
 57               	0.000000         	0           	                	;
 58               	0.000000         	0           	                	;
 59               	0.000000         	0           	                	;
 60               	0.000000         	0           	                	;
 61               	0.000000         	0           	                	;
 62               	0.000000         	0           	                	;
 63               	0.000000         	0           	                	;
 64               	0.000000         	0           	                	;
 65               	0.000000         	0           	                	;
 66               	0.000000         	0           	                	;
 67               	0.000000         	0           	                	;
 68               	0.000000         	0           	                	;
 69               	0.000000         	0           	                	;
 70               	0.000000         	0           	                	;
 71               	0.000000         	0           	                	;
 72               	0.000000         	0           	                	;
 73               	0.000000         	0           	                	;
 74               	0.000000         	0           	                	;
 75               	0.000000         	0           	                	;
 76               	0.000000         	0           	                	;
 77               	0.000000         	0           	                	;
 78               	0.000000         	0           	                	;
 79               	0.000000         	0           	                	;
 80               	0.000000         	0           	                	;
 81               	0.000000         	0           	                	;
 82               	0.000000         	0           	                	;
 83               	0.000000         	0           	                	;
 84               	0.000000         	0           	                	;
 85               	0.000000         	0           	                	;
 86               	0.000000         	0           	                	;
 87               	0.000000         	0           	                	;
 88               	0.000000         	0           	                	;
 89               	0.000000         	0           	                	;
 90               	0.000000         	0           	                	;
 91               	0.000000         	0           	                	;
 92               	0.000000         	0           	                	;
 93               	0.000000         	0           	                	;
 94               	0.000000         	0           	                	;
 95               	0.000000         	0           	                	;
 96               	0.000000         	0           	                	;
 97               	0.000000         	0           	                	;
 98               	0.000000         	0           	                	;
 99               	0.000000         	0           	                	;



[PIPES]
;ID              	Node1           	Node2           	Length      	Diameter    	Roughness   	MinorLoss   	Status
 0               	  0               	  1               	55.000000     	 0.600           0.014         	   0           	 Open  	;
 1               	  1               	  2               	42.000000     	 0.500           0.014         	   0           	 Open  	;
 2               	  2               	  3               	123.000000     	 0.500           0.014         	   0           	 Open  	;
 3               	  3               	  4               	5.000000     	 0.500           0.014         	   0           	 Open  	;
 4               	  4               	  5               	5.000000     	 0.500           0.014         	   0           	 Open  	;
 5               	  5               	  6               	75.000000     	 0.450           0.014         	   0           	 Open  	;
 6               	  6               	  7               	5.000000     	 0.450           0.014         	   0           	 Open  	;
 7               	  7               	  8               	24.000000     	 0.450           0.014         	   0           	 Open  	;
 8               	  8               	  9               	5.000000     	 0.450           0.014         	   0           	 Open  	;
 9               	  9               	  10               	32.000000     	 0.450           0.014         	   0           	 Open  	;
 10               	  10               	  11               	64.000000     	 0.450           0.014         	   0           	 Open  	;
 11               	  11               	  12               	5.000000     	 0.450           0.014         	   0           	 Open  	;
 12               	  12               	  13               	26.000000     	 0.450           0.014         	   0           	 Open  	;
 13               	  13               	  14               	38.000000     	 0.450           0.014         	   0           	 Open  	;
 14               	  14               	  15               	22.000000     	 0.450           0.014         	   0           	 Open  	;
 15               	  15               	  16               	15.000000     	 0.450           0.014         	   0           	 Open  	;
 16               	  16               	  17               	181.000000     	 0.450           0.014         	   0           	 Open  	;
 17               	  17               	  18               	5.000000     	 0.450           0.014         	   0           	 Open  	;
 18              	  18               	  19               	49.000000     	 0.450           0.010         	   0           	 Open  	;
 19               	  19               	  20               	5.000000     	 0.450           0.010         	   0           	 Open  	;
 20               	  20               	  21               	75.000000     	 0.450           0.010         	   0           	 Open  	;
 21               	  21               	  22               	128.000000     	 0.450           0.010         	   0           	 Open  	;
 22               	  22               	  23               	10.000000     	 0.450           0.010         	   0           	 Open  	;
 23               	  23               	  24               	5.0000     	 0.450           0.010         	   0           	 Open  	;
 24               	  24               	  25               	132.000000     	 0.120           0.010             0           	 Open  	;
 25               	  25               	  26               	5.000000     	 0.450           0.010         	   0           	 Open  	;
 26               	  26               	  27               	38.000000     	 0.450           0.010         	   0           	 Open  	;
 27               	  27               	  28               	5.000000     	 0.450           0.010         	   0           	 Open  	;
 28               	  28               	  29               	83.000000     	 0.450           0.008         	   0           	 Open  	;
 29               	  29               	  30               	10.000000     	 0.450           0.008         	   0           	 Open  	;
 30               	  30               	  31               	5.000000     	 0.450           0.008         	   0           	 Open  	;
 31               	  31               	  32               	48.000000     	 0.450           0.008         	   0           	 Open  	;
 32               	  32               	  33               	5.000000     	 0.450           0.008         	   0           	 Open  	;
 33               	  33               	  34               	60.000000     	 0.450           0.008         	   0           	 Open  	;
 34               	  34               	  35               	229.000000     	 0.450           0.008         	   0           	 Open  	;
 35               	  35               	  36               	5.000000     	 0.450           0.008         	   0           	 Open  	;
 36               	  36               	  37               	188.000000     	 0.150           0.008         	   0           	 Open  	;
 37               	  37               	  38               	25.000000     	 0.141           0.008         	   0           	 Open  	;
 38               	  38               	  39               	100.000000     	 0.100           0.008         	   0           	 Open  	;
 39               	  4               	  40               	25.000000     	 0.250           0.010         	   0           	 Open  	;
 40               	  40               	  41               	5.000000     	 0.250           0.010         	   0           	 Open  	;
 41               	  41               	  42               	5.000000     	 0.250           0.010         	   0           	 Open  	;
 42               	  42               	  43               	34.000000     	 0.150           0.010        	   0           	 Open  	;
 43               	  43               	  44               	37.000000     	 0.150           0.010         	   0           	 Open  	;
 44               	  44               	  45               	100.000000     	 0.121           0.010         	   0           	 Open  	;
 45               	  40               	  46               	100.000000     	 0.015           0.010         	   0           	 Open  	;
 46               	  41               	  47               	34.000000     	 0.150           0.010         	   0           	 Open  	;
 47               	  47               	  48               	100.000000     	 0.089           0.010         	   0           	 Open  	;
 48               	  43               	  49               	100.000000     	 0.047           0.010         	   0           	 Open  	;
 49               	  2               	  50               	100.000000     	 0.011           0.010         	   0           	 Open  	;
 50               	  3               	  51               	100.000000     	 0.030           0.010         	   0           	 Open  	;
 51               	  6               	  52               	83.000000     	 0.150           0.010         	   0           	 Open  	;
 52               	  52               	  53               	100.000000     	 0.111           0.010         	   0           	 Open  	;
 53               	  7               	  54               	100.000000     	 0.090           0.010         	   0           	 Open  	;
 54               	  8               	  55               	100.000000     	 0.032           0.010         	   0           	 Open  	;
 55               	  9               	  56               	464.000000     	 0.250           0.010         	   0           	 Open  	;
 56               	  56               	  57               	100.000000     	 0.097           0.010         	   0           	 Open  	;
 57               	  10               	  58               	37.000000     	 0.150           0.010         	   0           	 Open  	;
 58               	  58               	  59               	100.000000     	 0.129           0.010         	   0           	 Open  	;
 59               	  11               	  60               	100.000000     	 0.043           0.010         	   0           	 Open  	;
 60               	  12               	  61               	23.000000     	 0.150           0.010         	   0           	 Open  	;
 61               	  61               	  62               	100.000000     	 0.088           0.010         	   0           	 Open  	;
 62               	  13               	  63               	100.000000     	 0.030           0.010         	   0           	 Open  	;
 63               	  14               	  64               	100.000000     	 0.024           0.010         	   0           	 Open  	;
 64               	  15               	  65               	100.000000     	 0.020           0.010         	   0           	 Open  	;
 65               	  16               	  66               	210.000000     	 0.150           0.010         	   0           	 Open  	;
 66               	  66               	  67               	100.000000     	 0.088           0.010         	   0           	 Open  	;
 67               	  17               	  68               	100.000000     	 0.019           0.010         	   0           	 Open  	;
 68               	  18               	  69               	210.000000     	 0.250           0.010         	   0           	 Open  	;
 69               	  69               	  70               	100.000000     	 0.158           0.010         	   0           	 Open  	;
 70               	  19               	  71               	100.000000     	 0.011           0.011         	   0           	 Open  	;
 71               	  20               	  72               	14.000000     	 0.200           0.011         	   0           	 Open  	;
 72               	  72               	  73               	100.000000     	 0.127           0.011         	   0           	 Open  	;
 73               	  21               	  74               	92.000000     	 0.150           0.011         	   0           	 Open  	;
 74               	  74               	  75               	10.000000     	 0.150           0.011         	   0           	 Open  	;
 75               	  75               	  76               	68.000000     	 0.150           0.011         	   0           	 Open  	;
 76               	  76               	  77               	100.000000     	 0.050           0.011         	   0           	 Open  	;
 77               	  74               	  78               	100.000000     	 0.030           0.011         	   0           	 Open  	;
 78               	  75               	  79               	5.000000     	 0.150           0.011         	   0           	 Open  	;
 79               	  79               	  80               	52.000000     	 0.250           0.011         	   0           	 Open  	;
 80               	  80               	  81               	100.000000     	 0.117           0.011         	   0           	 Open  	;
 81               	  22               	  82               	100.000000     	 0.011           0.011         	   0           	 Open  	;
 82               	  23               	  83               	4.000000     	 0.150           0.011         	   0           	 Open  	;
 83               	  83               	  84               	100.000000     	 0.060           0.011         	   0           	 Open  	;
 84               	  26               	  85               	151.000000     	 0.200           0.011         	   0           	 Open  	;
 85               	  85               	  86               	100.000000     	 0.120           0.011         	   0           	 Open  	;
 86               	  27               	  87               	14.000000     	 0.097           0.011         	   0           	 Open  	;
 87               	  87               	  88               	100.000000     	 0.057           0.011         	   0           	 Open  	;
 88               	  28               	  89               	29.000000     	 0.141           0.011         	   0           	 Open  	;
 89               	  89               	  90               	100.000000     	 0.150           0.011         	   0           	 Open  	;
 90               	  29               	  91               	100.000000     	 0.050           0.007         	   0           	 Open  	;
 91               	  30               	  92               	100.000000     	 0.039           0.007         	   0           	 Open  	;
 92               	  31               	  93               	8.000000     	 0.150           0.007         	   0           	 Open  	;
 93               	  93               	  94               	100.000000     	 0.088           0.007         	   0           	 Open  	;
 94               	  32               	  95               	100.000000     	 0.014           0.007         	   0           	 Open  	;
 95               	  33               	  96               	30.000000     	 0.150           0.007         	   0           	 Open  	;
 96               	  96               	  97               	100.000000     	 0.158           0.007         	   0           	 Open  	;
 97               	  34               	  98               	100.000000     	 0.029           0.007         	   0           	 Open  	;
 98               	  35               	  99               	100.000000     	 0.036           0.007         	   0           	 Open  	;




[COORDINATES]
;Node            	X-Coord         	Y-Coord
 0              	 0.00              	100.00   
 1              	 100.00              	100.00   
 2              	200.00              	100.00   
 3              	0.0              	-100.00   
 4              	100.00              	-100.00   
 5              	200.00              	-100.00   
 6                      300.00              	-100.00    
 7       		200.00              	-100.00
 8                      208.00                  -100.00
 9                      209.00                  -100.00
 10                      210.00                -100.00
 11                      211.00                -100.00
 12                      212.00                -100.00
 13                      213.00                -100.00
 14                      214.00                -100.00
 15                      215.00                -100.00
 16                      216.00                -100.00
 17                      217.00                -100.00
 18                      218.00                -100.00
 19                      219.00                -100.00
 20                      220.00                -100.00
 21                      221.00                -100.00
 22                      222.00                -100.00
 23                      223.00                -100.00
 24                      224.00                -100.00
 25                      225.00                -100.00
 26                      226.00                -100.00
 27                      227.00                -100.00
 28                      228.00                -100.00
 29                      229.00                -100.00
 30                      230.00                -100.00
 31                      231.00                -100.00
 32                      232.00                -100.00
 33                      233.00                -100.00
 34                      234.00                -100.00
 35                      235.00                -100.00
 36                      236.00                -100.00
 37                      237.00                -100.00
 38                      238.00                -100.00
 39                      239.00                -100.00
 40                      240.00                -100.00
 41                      241.00                -100.00
 42                      242.00                -100.00
 43                      243.00                -100.00
 44                      244.00                -100.00
 45                      245.00                -100.00
 46                      246.00                -100.00
 47                      247.00                -100.00
 48                      248.00                -100.00
 49                      249.00                -100.00
 50                      250.00                -100.00
 51                      251.00                -100.00
 52                      252.00                -100.00
 53                      253.00                -100.00
 54                      254.00                -100.00
 55                      255.00                -100.00
 56                      256.00                -100.00
 57                      257.00                -100.00
 58                      258.00                -100.00
 59                      259.00                -100.00
 60                      260.00                -100.00
 61                      261.00                -100.00
 62                      262.00                -100.00
 63                      263.00                -100.00
 64                      264.00                -100.00
 65                      265.00                -100.00
 66                      266.00                -100.00
 67                      267.00                -100.00
 68                      268.00                -100.00
 69                      269.00                -100.00
 70                      270.00                -100.00
 71                      271.00                -100.00
 72                      272.00                -100.00
 73                      273.00                -100.00
 74                      274.00                -100.00
 75                      275.00                -100.00
 76                      276.00                -100.00
 77                      277.00                -100.00
 78                      278.00                -100.00
 79                      279.00                -100.00
 80                      280.00                -100.00
 81                      281.00                -100.00
 82                      282.00                -100.00
 83                      283.00                -100.00
 84                      284.00                -100.00
 85                      285.00                -100.00
 86                      286.00                -100.00
 87                      287.00                -100.00
 88                      288.00                -100.00
 89                      289.00                -100.00
 90                      290.00                -100.00
 91                      291.00                -100.00
 92                      292.00                -100.00
 93                      293.00                -100.00
 94                      294.00                -100.00
 95                      295.00                -100.00
 96                      296.00                -100.00
 97                      297.00                -100.00
 98                      298.00                -100.00
 99                      299.00                -100.00
