[TITLE]

[JUNCTIONS]
;ID              	Elev        	Demand      	Pattern
 0               	232.00         	0           	                	;
 1               	233.65         	0           	                	;
 2               	233.90         	0           	                	;
 3               	234.00         	0           	                	;
 4               	234.20         	0           	                	;
 5               	233.20         	0           	                	;
 6               	233.00         	0           	                	;
 7               	233.50         	0           	                	; 
 8               	233.60         	0           	                	;

 

[PIPES]
;ID              	Node1           	Node2           	Length      	Diameter    	Roughness   	MinorLoss   	Status
 0               	  0               	  1               	208.00     	 0.6000           0.020         	   0           	 Open  	;
 1               	  1               	  2               	230.00     	 0.6000           0.020        	   0           	 Open  	;
 2               	  2               	  3               	54.00     	 0.6000           0.020         	   0           	 Open  	;
 3               	  3               	  4               	5.00     	 0.6000           0.020         	   0           	 Open  	;
 4               	  4               	  5               	35.00     	 0.6000           0.020         	   0           	 Open  	;
 5               	  5               	  6               	123.00     	 0.6000           0.020         	   0           	 Open  	;
 6               	  3               	  7               	285.00     	 0.2500           0.020         	   0           	 Open  	;
 7               	  4               	  8               	100.00     	 0.3000           0.020         	   0           	 Open  	;

 

 
 

[COORDINATES]
;Node            	X-Coord         	Y-Coord
 0              	 0.00              	 0.00   
 1              	32.14              	 0.00   
 2              	64.29              	 0.00   
 3              	73.21              	 0.00
 4              	75.00              	 0.00    
 5              	82.14              	 0.00   
 6              	100.00              	 0.00   
 7              	73.21              	100.00    
 8              	75.00              	40.00   
