[TITLE]

[JUNCTIONS]
;ID              	Elev        	Demand      	Pattern
 0               	1.00         	0           	                	;
 1               	1.00         	0           	                	;
 2               	1.00         	0           	                	;
 3               	1.00         	0           	                	;
 4               	1.00         	0           	                	;
 5               	1.00         	0           	                	;
 6               	0.00         	0           	                	;
 7               	0.00         	0           	                	;
 8               	0.00         	0           	                	;
 9               	0.00         	0           	                	;

[PIPES]
;ID              	Node1           	Node2           	Length      	Diameter    	Roughness   	MinorLoss   	Status
 0               	  0               	  1               	100.00     	 0.300           0.012         	   0           	 Open  	;
 1               	  1               	  2               	100.00     	 0.300           0.012         	   0           	 Open  	;
 2               	  2               	  3               	100.00     	 0.300           0.012         	   0           	 Open  	;
 3               	  3               	  4               	100.00     	 0.300           0.012         	   0           	 Open  	;
 4               	  4               	  5               	100.00     	 0.300           0.012         	   0           	 Open  	;
 5               	  1               	  6               	120.00     	 0.150           0.012         	   0           	 Open  	;
 6               	  2               	  7               	120.00     	 0.150           0.012         	   0           	 Open  	;
 7               	  3               	  8               	120.00     	 0.150           0.012         	   0           	 Open  	;
 8               	  4               	  9               	120.00     	 0.150           0.012         	   0           	 Open  	;

[COORDINATES]
;Node            	X-Coord         	Y-Coord
 0              	 0.00              	100.00   
 1              	20.00              	100.00   
 2              	40.00              	100.00   
 3              	60.00              	100.00   
 4              	80.00              	100.00   
 5              	100.00              	100.00   
 6              	20.00              	 0.00   
 7              	40.00              	 0.00   
 8              	60.00              	 0.00   
 9              	80.00              	 0.00   
