[TITLE]

[JUNCTIONS]
;ID              	Elev        	Demand      	Pattern
0                 1.000                0                                ;
1                 1.000                0                                ;
2                 1.000                0                                ;
3                 1.000                0                                ;
4                 1.000                0                                ;
5                 1.000                0                                ;
6                 0.000                0                                ;
7                 0.000                0                                ;
8                 0.000                0                                ;
9                 0.000                0                                ;

[PIPES]
;ID              	Node1           	Node2           	Length      	Diameter    	Roughness   	MinorLoss   	Status
0                         0                         1                    100            0.30            0.0120            0              open
1                         1                         2                    100            0.30            0.0120            0              open
2                         2                         3                    100            0.30            0.0120            0              open
3                         3                         4                    100            0.30            0.0120            0              open
4                         4                         5                    100            0.30            0.0120            0              open
5                         1                         6                    150            0.15            0.0120            0              open
6                         2                         7                    150            0.15            0.0120            0              open
7                         3                         8                    150            0.15            0.0120            0              open
8                         4                         9                    150            0.15            0.0120            0              open

[COORDINATES]
;Node            	X-Coord         	Y-Coord
 0              	 0.00              	100.00   
 1              	20.00              	100.00   
 2              	40.00              	100.00   
 3              	60.00              	100.00   
 4              	80.00              	100.00   
 5              	100.00              	100.00   
 6              	20.00              	 0.00   
 7              	40.00              	 0.00   
 8              	60.00              	 0.00   
 9              	80.00              	 0.00   
